Create time

Create mesh for time = 0

Time = 0

Initial volume averaged MagSqr(U): 0.499966

